tests/fuzzer/corpus_json/24_columnar_21_random_025.json
{
  "version": "1.0",
  "type": "input",
  "is_batch": false,
  "attributes": {
    "node": [
      "id",
      "u_rated"
    ],
    "source": [
      "id",
      "node",
      "status",
      "u_ref",
      "u_ref_angle",
      "sk",
      "rx_ratio",
      "z01_ratio"
    ],
    "line": [
      "id",
      "from_node",
      "to_node",
      "from_status",
      "to_status",
      "r1",
      "x1",
      "c1",
      "tan1",
      "r0",
      "x0",
      "c0",
      "tan0",
      "i_n"
    ],
    "sym_load": [
      "id",
      "node",
      "status",
      "type",
      "p_specified",
      "q_specified"
    ]
  },
  "data": {
    "node": [
      [
        0,
        230.0
      ],
      [
        1,
        230.0
      ],
      [
        2,
        230.0
      ],
      [
        3,
        230.0
      ],
      [
        4,
        230.0
      ],
      [
        5,
        230.0
      ],
      [
        6,
        230.0
      ],
      [
        7,
        230.0
      ]
    ],
    "source": [
      [
        8,
        0,
        1,
        1.0743416224490876,
        0.0,
        214124365.3750482,
        0.3182308728753458,
        1.0
      ],
      [
        9,
        7,
        1,
        1.0,
        0.0,
        952976762.9184464,
        0.1,
        1.0
      ]
    ],
    "line": [
      [
        10,
        0,
        1,
        1,
        1,
        1.2784183410823358,
        1.5295049013472202,
        4.240801565062292e-07,
        0.0,
        0.3,
        0.3,
        1e-09,
        0.0,
        592.6288738850069
      ],
      [
        11,
        1,
        2,
        1,
        1,
        0.621958247419368,
        3.433386524356115,
        8.322405233765762e-07,
        0.0,
        0.3,
        0.3,
        1e-09,
        0.0,
        517.1958599526236
      ],
      [
        12,
        2,
        3,
        1,
        1,
        3.972304088817473,
        3.124899801444396,
        8.248125234140684e-07,
        0.0,
        0.3,
        0.3,
        1e-09,
        0.0,
        189.12939655257645
      ],
      [
        13,
        3,
        4,
        1,
        1,
        1.7933866573029351,
        2.3469719113652374,
        1.0398413153970209e-07,
        0.0,
        0.3,
        0.3,
        1e-09,
        0.0,
        973.3753929676224
      ],
      [
        14,
        4,
        5,
        1,
        1,
        3.1801476209631963,
        0.49112895878220597,
        5.827761542521051e-07,
        0.0,
        0.3,
        0.3,
        1e-09,
        0.0,
        420.28171941401564
      ],
      [
        15,
        5,
        6,
        1,
        1,
        0.9469819693315795,
        0.8046624667435531,
        4.6074351722343176e-07,
        0.0,
        0.3,
        0.3,
        1e-09,
        0.0,
        79.66615162355312
      ],
      [
        16,
        6,
        7,
        1,
        1,
        2.8153890397158676,
        2.574639120539862,
        1.2707991696432463e-07,
        0.0,
        0.3,
        0.3,
        1e-09,
        0.0,
        876.4095295107842
      ]
    ],
    "sym_load": [
      [
        17,
        1,
        1,
        0,
        -84537.58833232782,
        1638.098243000435
      ],
      [
        18,
        4,
        1,
        1,
        22268.4733640123,
        3077.566248586567
      ],
      [
        19,
        5,
        1,
        1,
        -43430.1716547518,
        -9045.204224111114
      ],
      [
        20,
        6,
        1,
        1,
        25765.23865272368,
        -855.3150268701265
      ],
      [
        21,
        7,
        1,
        0,
        -14158.847007063072,
        1524.524740942832
      ]
    ]
  }
}
